
** Library name: Library_Jin
** Cell name: inverter
** View name: schematic
.subckt inverter gnd input output vdd
